Circuit: * D:\Documents\School\TTU\summer23\project-lab-4\iCEGenius\board\sims\Draft6.asc

Limiting rise time of source v1 to 2e-06
Limiting fall time of source v1 to 2e-06
WARNING: Less than two connections to node v.  This node is used by v1.
.OP point found by inspection.

Date: Wed Oct  4 11:05:08 2023
Total elapsed time: 0.192 seconds.

tnom = 27
temp = 27
method = modified trap
totiter = 185060
traniter = 185060
tranpoints = 92531
accept = 75032
rejected = 17499
matrix size = 2
fillins = 0
solver = Normal
Avg thread counts: 1.0/1.1/1.1/1.0
Matrix Compiler1: off  [0.0]/0.0/0.1
Matrix Compiler2: off  [0.0]/0.0/0.0

