Circuit: * D:\Documents\School\TTU\summer23\project-lab-4\iCEGenius\board\sims\Draft4.asc

Warning: Multiple definitions of model "2scr375p" Type: BJT
Warning: Multiple definitions of model "bc857b" Type: BJT
Warning: Multiple definitions of model "bc847c" Type: BJT
Warning: Multiple definitions of model "bc847b" Type: BJT
Direct Newton iteration for .op point succeeded.

Date: Wed Aug 23 16:01:21 2023
Total elapsed time: 0.051 seconds.

tnom = 27
temp = 27
method = modified trap
totiter = 92
traniter = 80
tranpoints = 41
accept = 41
rejected = 0
matrix size = 15
fillins = 2
solver = Normal
Avg thread counts: 20.0/20.0/20.0/20.0
Matrix Compiler1: 970 bytes object code size
Matrix Compiler2: 1.21 KB object code size
