Circuit: * D:\Documents\School\TTU\summer23\project-lab-4\iCEGenius\board\sims\Draft4.asc

Warning: Multiple definitions of model "2scr375p" Type: BJT
Warning: Multiple definitions of model "bc857b" Type: BJT
Warning: Multiple definitions of model "bc847c" Type: BJT
Warning: Multiple definitions of model "bc847b" Type: BJT
Direct Newton iteration for .op point succeeded.

Date: Wed Sep  6 16:32:31 2023
Total elapsed time: 0.149 seconds.

tnom = 27
temp = 27
method = modified trap
totiter = 2100
traniter = 2088
tranpoints = 1045
accept = 1045
rejected = 0
matrix size = 15
fillins = 2
solver = Normal
Avg thread counts: 4.5/8.1/8.1/4.5
Matrix Compiler1: 970 bytes object code size  0.2/0.1/[0.1]
Matrix Compiler2:      98 opcodes  0.1/[0.1]/0.1

