Circuit: * D:\Documents\School\TTU\summer23\project-lab-4\iCEGenius\board\sims\Draft3.asc

Warning: Multiple definitions of model "2scr375p" Type: BJT
Warning: Multiple definitions of model "bc857b" Type: BJT
Warning: Multiple definitions of model "bc847c" Type: BJT
Warning: Multiple definitions of model "bc847b" Type: BJT
Direct Newton iteration for .op point succeeded.

Date: Wed Aug 16 17:04:04 2023
Total elapsed time: 0.161 seconds.

tnom = 27
temp = 27
method = modified trap
totiter = 2110
traniter = 2096
tranpoints = 1049
accept = 1049
rejected = 0
matrix size = 15
fillins = 2
solver = Normal
Avg thread counts: 1.8/2.7/2.7/1.8
Matrix Compiler1: 970 bytes object code size  0.5/0.7/[0.2]
Matrix Compiler2: 1.21 KB object code size  0.4/0.3/[0.2]

