Circuit: * D:\Documents\School\TTU\summer23\project-lab-4\iCEGenius\board\sims\Draft2.asc

WARNING: Less than two connections to node vout.  This node is used by r3.
Direct Newton iteration for .op point succeeded.

Date: Wed Aug 16 16:20:14 2023
Total elapsed time: 0.049 seconds.

tnom = 27
temp = 27
method = modified trap
totiter = 253
traniter = 248
tranpoints = 125
accept = 125
rejected = 0
matrix size = 11
fillins = 0
solver = Normal
Avg thread counts: 8.1/13.8/13.8/8.1
Matrix Compiler1: 494 bytes object code size  0.2/0.1/[0.1]
Matrix Compiler2: off  [0.1]/0.1/0.1

