Circuit: * D:\Documents\School\TTU\summer23\project-lab-4\iCEGenius\board\sims\Draft1.asc

Direct Newton iteration for .op point succeeded.

Date: Wed Aug 16 14:40:31 2023
Total elapsed time: 0.053 seconds.

tnom = 27
temp = 27
method = modified trap
totiter = 2091
traniter = 2088
tranpoints = 1045
accept = 1045
rejected = 0
matrix size = 3
fillins = 0
solver = Normal
Avg thread counts: 1.8/2.7/2.7/1.8
Matrix Compiler1:       5 opcodes  0.1/[0.1]/0.1
Matrix Compiler2: off  [0.1]/0.1/0.1

