Circuit: * D:\Documents\School\TTU\summer23\project-lab-4\iCEGenius\board\sims\inverter_test.asc

Warning: Multiple definitions of model "2scr375p" Type: BJT
Warning: Multiple definitions of model "bc857b" Type: BJT
Warning: Multiple definitions of model "bc847c" Type: BJT
Warning: Multiple definitions of model "bc847b" Type: BJT
Direct Newton iteration for .op point succeeded.

Date: Mon May 29 22:16:37 2023
Total elapsed time: 0.052 seconds.

tnom = 27
temp = 27
method = modified trap
totiter = 2103
traniter = 2096
tranpoints = 1049
accept = 1049
rejected = 0
matrix size = 6
fillins = 0
solver = Normal
Avg thread counts: 1.8/2.7/2.7/1.8
Matrix Compiler1:       9 opcodes  0.1/[0.1]/0.1
Matrix Compiler2: off  [0.1]/0.1/0.1

